*
* MAIN CELL: Component pathname : root_element
*
   .MODEL MMI_switch_ideal "label 1"="TE" "control"=1
   .MODEL "Waveguide Crossing" "label 1"="TE" "transmission 1"=0.9954054174 "cross talk 1"=0.0001
   + "transmission 2"=1 "cross talk 2"=0 "reflection 1"=0.001
   + "reflection 2"=0 "label 2"="TM" "orthogonal identifier 1"=1
   + "orthogonal identifier 2"=2
   .MODEL "Straight Waveguide" "excess loss temperature sensitivity 2"=0 "label 1"="TE" "orthogonal identifier 1"=1 
   + "loss 1"=0 "number of taps"=64 "dispersion 1"=0 
   + "effective index temperature sensitivity 2"=0 "effective index 2"=1 length=10u 
   + "group index 2"=1 "orthogonal identifier 2"=2 "nominal temperature"=300 
   + "loss 2"=0 "dispersion 2"=0 frequency=193.1T 
   + "digital filter"=0 "run diagnostic"=0 "window function"="rectangular" 
   + "thermal fill factor"=1 "excess loss temperature sensitivity 1"=0 "label 2"="TM" 
   + "thermal effects"=0 "effective index temperature sensitivity 1"=0 "effective index 1"=1 

.subckt HDBE  N$8961 N$8963 N$8965 N$8967 N$8969 N$8971 N$8973 N$8975 N$8977 N$8979 N$8981 N$8983 N$8985 N$8987 N$8989 N$8991 N$8993 N$8995 N$8997 N$8999 N$9001 N$9003 N$9005 N$9007 N$9009 N$9011 N$9013 N$9015 N$9017 N$9019 N$9021 N$9023 N$9153 N$9155 N$9157 N$9159 N$9161 N$9163 N$9165 N$9167 N$9169 N$9171 N$9173 N$9175 N$9177 N$9179 N$9181 N$9183 N$9185 N$9187 N$9189 N$9191 N$9193 N$9195 N$9197 N$9199 N$9201 N$9203 N$9205 N$9207 N$9209 N$9211 N$9213 N$9215
   S1249 N$8961 N$8962 N$6845 N$4738 MMI_switch_ideal library="Design kits/capstone" sch_x=-126 sch_y=31 sch_r=0 sch_f=false lay_x=0 lay_y=0
   S1250 N$8963 N$8964 N$4740 N$4742 MMI_switch_ideal library="Design kits/capstone" sch_x=-126 sch_y=29 sch_r=0 sch_f=false lay_x=0 lay_y=0
   S1251 N$8965 N$8966 N$4744 N$4746 MMI_switch_ideal library="Design kits/capstone" sch_x=-126 sch_y=27 sch_r=0 sch_f=false lay_x=0 lay_y=0
   S1252 N$8967 N$8968 N$4748 N$4750 MMI_switch_ideal library="Design kits/capstone" sch_x=-126 sch_y=25 sch_r=0 sch_f=false lay_x=0 lay_y=0
   S1253 N$8969 N$8970 N$4752 N$4754 MMI_switch_ideal library="Design kits/capstone" sch_x=-126 sch_y=23 sch_r=0 sch_f=false lay_x=0 lay_y=0
   S1254 N$8971 N$8972 N$4756 N$4758 MMI_switch_ideal library="Design kits/capstone" sch_x=-126 sch_y=21 sch_r=0 sch_f=false lay_x=0 lay_y=0
   S1255 N$8973 N$8974 N$4760 N$4762 MMI_switch_ideal library="Design kits/capstone" sch_x=-126 sch_y=19 sch_r=0 sch_f=false lay_x=0 lay_y=0
   S1256 N$8975 N$8976 N$4764 N$4766 MMI_switch_ideal library="Design kits/capstone" sch_x=-126 sch_y=17 sch_r=0 sch_f=false lay_x=0 lay_y=0
   S1257 N$8977 N$8978 N$4768 N$4770 MMI_switch_ideal library="Design kits/capstone" sch_x=-126 sch_y=15 sch_r=0 sch_f=false lay_x=0 lay_y=0
   S1258 N$8979 N$8980 N$4772 N$4774 MMI_switch_ideal library="Design kits/capstone" sch_x=-126 sch_y=13 sch_r=0 sch_f=false lay_x=0 lay_y=0
   S1259 N$8981 N$8982 N$4776 N$4778 MMI_switch_ideal library="Design kits/capstone" sch_x=-126 sch_y=11 sch_r=0 sch_f=false lay_x=0 lay_y=0
   S1260 N$8983 N$8984 N$4780 N$4782 MMI_switch_ideal library="Design kits/capstone" sch_x=-126 sch_y=9 sch_r=0 sch_f=false lay_x=0 lay_y=0
   S1261 N$8985 N$8986 N$4784 N$4786 MMI_switch_ideal library="Design kits/capstone" sch_x=-126 sch_y=7 sch_r=0 sch_f=false lay_x=0 lay_y=0
   S1262 N$8987 N$8988 N$4788 N$4790 MMI_switch_ideal library="Design kits/capstone" sch_x=-126 sch_y=5 sch_r=0 sch_f=false lay_x=0 lay_y=0
   S1263 N$8989 N$8990 N$4792 N$4794 MMI_switch_ideal library="Design kits/capstone" sch_x=-126 sch_y=3 sch_r=0 sch_f=false lay_x=0 lay_y=0
   S1264 N$8991 N$8992 N$4796 N$4798 MMI_switch_ideal library="Design kits/capstone" sch_x=-126 sch_y=1 sch_r=0 sch_f=false lay_x=0 lay_y=0
   S1265 N$8993 N$8994 N$4800 N$4802 MMI_switch_ideal library="Design kits/capstone" sch_x=-126 sch_y=-1 sch_r=0 sch_f=false lay_x=0 lay_y=0
   S1266 N$8995 N$8996 N$4804 N$4806 MMI_switch_ideal library="Design kits/capstone" sch_x=-126 sch_y=-3 sch_r=0 sch_f=false lay_x=0 lay_y=0
   S1267 N$8997 N$8998 N$4808 N$4810 MMI_switch_ideal library="Design kits/capstone" sch_x=-126 sch_y=-5 sch_r=0 sch_f=false lay_x=0 lay_y=0
   S1268 N$8999 N$9000 N$4812 N$4814 MMI_switch_ideal library="Design kits/capstone" sch_x=-126 sch_y=-7 sch_r=0 sch_f=false lay_x=0 lay_y=0
   S1269 N$9001 N$9002 N$4816 N$4818 MMI_switch_ideal library="Design kits/capstone" sch_x=-126 sch_y=-9 sch_r=0 sch_f=false lay_x=0 lay_y=0
   S1270 N$9003 N$9004 N$4820 N$4822 MMI_switch_ideal library="Design kits/capstone" sch_x=-126 sch_y=-11 sch_r=0 sch_f=false lay_x=0 lay_y=0
   S1271 N$9005 N$9006 N$4824 N$4826 MMI_switch_ideal library="Design kits/capstone" sch_x=-126 sch_y=-13 sch_r=0 sch_f=false lay_x=0 lay_y=0
   S1272 N$9007 N$9008 N$4828 N$4830 MMI_switch_ideal library="Design kits/capstone" sch_x=-126 sch_y=-15 sch_r=0 sch_f=false lay_x=0 lay_y=0
   S1273 N$9009 N$9010 N$4832 N$4834 MMI_switch_ideal library="Design kits/capstone" sch_x=-126 sch_y=-17 sch_r=0 sch_f=false lay_x=0 lay_y=0
   S1274 N$9011 N$9012 N$4836 N$4838 MMI_switch_ideal library="Design kits/capstone" sch_x=-126 sch_y=-19 sch_r=0 sch_f=false lay_x=0 lay_y=0
   S1275 N$9013 N$9014 N$4840 N$4842 MMI_switch_ideal library="Design kits/capstone" sch_x=-126 sch_y=-21 sch_r=0 sch_f=false lay_x=0 lay_y=0
   S1276 N$9015 N$9016 N$4844 N$4846 MMI_switch_ideal library="Design kits/capstone" sch_x=-126 sch_y=-23 sch_r=0 sch_f=false lay_x=0 lay_y=0
   S1277 N$9017 N$9018 N$4848 N$4850 MMI_switch_ideal library="Design kits/capstone" sch_x=-126 sch_y=-25 sch_r=0 sch_f=false lay_x=0 lay_y=0
   S1278 N$9019 N$9020 N$4852 N$4854 MMI_switch_ideal library="Design kits/capstone" sch_x=-126 sch_y=-27 sch_r=0 sch_f=false lay_x=0 lay_y=0
   S1279 N$9021 N$9022 N$4856 N$4858 MMI_switch_ideal library="Design kits/capstone" sch_x=-126 sch_y=-29 sch_r=0 sch_f=false lay_x=0 lay_y=0
   S1280 N$9023 N$9024 N$4860 N$6847 MMI_switch_ideal library="Design kits/capstone" sch_x=-126 sch_y=-31 sch_r=0 sch_f=false lay_x=0 lay_y=0
   C1281 N$4737 N$4739 N$6721 N$4862 "Waveguide Crossing" sch_x=-124 sch_y=30 sch_r=0 sch_f=false lay_x=0 lay_y=0
   C1282 N$4741 N$4743 N$4864 N$4866 "Waveguide Crossing" sch_x=-124 sch_y=28 sch_r=0 sch_f=false lay_x=0 lay_y=0
   C1283 N$4745 N$4747 N$4868 N$4870 "Waveguide Crossing" sch_x=-124 sch_y=26 sch_r=0 sch_f=false lay_x=0 lay_y=0
   C1284 N$4749 N$4751 N$4872 N$4874 "Waveguide Crossing" sch_x=-124 sch_y=24 sch_r=0 sch_f=false lay_x=0 lay_y=0
   C1285 N$4753 N$4755 N$4876 N$4878 "Waveguide Crossing" sch_x=-124 sch_y=22 sch_r=0 sch_f=false lay_x=0 lay_y=0
   C1286 N$4757 N$4759 N$4880 N$4882 "Waveguide Crossing" sch_x=-124 sch_y=20 sch_r=0 sch_f=false lay_x=0 lay_y=0
   C1287 N$4761 N$4763 N$4884 N$4886 "Waveguide Crossing" sch_x=-124 sch_y=18 sch_r=0 sch_f=false lay_x=0 lay_y=0
   C1288 N$4765 N$4767 N$4888 N$4890 "Waveguide Crossing" sch_x=-124 sch_y=16 sch_r=0 sch_f=false lay_x=0 lay_y=0
   C1289 N$4769 N$4771 N$4892 N$4894 "Waveguide Crossing" sch_x=-124 sch_y=14 sch_r=0 sch_f=false lay_x=0 lay_y=0
   C1290 N$4773 N$4775 N$4896 N$4898 "Waveguide Crossing" sch_x=-124 sch_y=12 sch_r=0 sch_f=false lay_x=0 lay_y=0
   C1291 N$4777 N$4779 N$4900 N$4902 "Waveguide Crossing" sch_x=-124 sch_y=10 sch_r=0 sch_f=false lay_x=0 lay_y=0
   C1292 N$4781 N$4783 N$4904 N$4906 "Waveguide Crossing" sch_x=-124 sch_y=8 sch_r=0 sch_f=false lay_x=0 lay_y=0
   C1293 N$4785 N$4787 N$4908 N$4910 "Waveguide Crossing" sch_x=-124 sch_y=6 sch_r=0 sch_f=false lay_x=0 lay_y=0
   C1294 N$4789 N$4791 N$4912 N$4914 "Waveguide Crossing" sch_x=-124 sch_y=4 sch_r=0 sch_f=false lay_x=0 lay_y=0
   C1295 N$4793 N$4795 N$4916 N$4918 "Waveguide Crossing" sch_x=-124 sch_y=2 sch_r=0 sch_f=false lay_x=0 lay_y=0
   C1296 N$4797 N$4799 N$4920 N$4922 "Waveguide Crossing" sch_x=-124 sch_y=0 sch_r=0 sch_f=false lay_x=0 lay_y=0
   C1297 N$4801 N$4803 N$4924 N$4926 "Waveguide Crossing" sch_x=-124 sch_y=-2 sch_r=0 sch_f=false lay_x=0 lay_y=0
   C1298 N$4805 N$4807 N$4928 N$4930 "Waveguide Crossing" sch_x=-124 sch_y=-4 sch_r=0 sch_f=false lay_x=0 lay_y=0
   C1299 N$4809 N$4811 N$4932 N$4934 "Waveguide Crossing" sch_x=-124 sch_y=-6 sch_r=0 sch_f=false lay_x=0 lay_y=0
   C1300 N$4813 N$4815 N$4936 N$4938 "Waveguide Crossing" sch_x=-124 sch_y=-8 sch_r=0 sch_f=false lay_x=0 lay_y=0
   C1301 N$4817 N$4819 N$4940 N$4942 "Waveguide Crossing" sch_x=-124 sch_y=-10 sch_r=0 sch_f=false lay_x=0 lay_y=0
   C1302 N$4821 N$4823 N$4944 N$4946 "Waveguide Crossing" sch_x=-124 sch_y=-12 sch_r=0 sch_f=false lay_x=0 lay_y=0
   C1303 N$4825 N$4827 N$4948 N$4950 "Waveguide Crossing" sch_x=-124 sch_y=-14 sch_r=0 sch_f=false lay_x=0 lay_y=0
   C1304 N$4829 N$4831 N$4952 N$4954 "Waveguide Crossing" sch_x=-124 sch_y=-16 sch_r=0 sch_f=false lay_x=0 lay_y=0
   C1305 N$4833 N$4835 N$4956 N$4958 "Waveguide Crossing" sch_x=-124 sch_y=-18 sch_r=0 sch_f=false lay_x=0 lay_y=0
   C1306 N$4837 N$4839 N$4960 N$4962 "Waveguide Crossing" sch_x=-124 sch_y=-20 sch_r=0 sch_f=false lay_x=0 lay_y=0
   C1307 N$4841 N$4843 N$4964 N$4966 "Waveguide Crossing" sch_x=-124 sch_y=-22 sch_r=0 sch_f=false lay_x=0 lay_y=0
   C1308 N$4845 N$4847 N$4968 N$4970 "Waveguide Crossing" sch_x=-124 sch_y=-24 sch_r=0 sch_f=false lay_x=0 lay_y=0
   C1309 N$4849 N$4851 N$4972 N$4974 "Waveguide Crossing" sch_x=-124 sch_y=-26 sch_r=0 sch_f=false lay_x=0 lay_y=0
   C1310 N$4853 N$4855 N$4976 N$4978 "Waveguide Crossing" sch_x=-124 sch_y=-28 sch_r=0 sch_f=false lay_x=0 lay_y=0
   C1311 N$4857 N$4859 N$4980 N$6843 "Waveguide Crossing" sch_x=-124 sch_y=-30 sch_r=0 sch_f=false lay_x=0 lay_y=0
   C1312 N$4861 N$4863 N$6723 N$4982 "Waveguide Crossing" sch_x=-122 sch_y=29 sch_r=0 sch_f=false lay_x=0 lay_y=0
   C1313 N$4865 N$4867 N$4984 N$4986 "Waveguide Crossing" sch_x=-122 sch_y=27 sch_r=0 sch_f=false lay_x=0 lay_y=0
   C1314 N$4869 N$4871 N$4988 N$4990 "Waveguide Crossing" sch_x=-122 sch_y=25 sch_r=0 sch_f=false lay_x=0 lay_y=0
   C1315 N$4873 N$4875 N$4992 N$4994 "Waveguide Crossing" sch_x=-122 sch_y=23 sch_r=0 sch_f=false lay_x=0 lay_y=0
   C1316 N$4877 N$4879 N$4996 N$4998 "Waveguide Crossing" sch_x=-122 sch_y=21 sch_r=0 sch_f=false lay_x=0 lay_y=0
   C1317 N$4881 N$4883 N$5000 N$5002 "Waveguide Crossing" sch_x=-122 sch_y=19 sch_r=0 sch_f=false lay_x=0 lay_y=0
   C1318 N$4885 N$4887 N$5004 N$5006 "Waveguide Crossing" sch_x=-122 sch_y=17 sch_r=0 sch_f=false lay_x=0 lay_y=0
   C1319 N$4889 N$4891 N$5008 N$5010 "Waveguide Crossing" sch_x=-122 sch_y=15 sch_r=0 sch_f=false lay_x=0 lay_y=0
   C1320 N$4893 N$4895 N$5012 N$5014 "Waveguide Crossing" sch_x=-122 sch_y=13 sch_r=0 sch_f=false lay_x=0 lay_y=0
   C1321 N$4897 N$4899 N$5016 N$5018 "Waveguide Crossing" sch_x=-122 sch_y=11 sch_r=0 sch_f=false lay_x=0 lay_y=0
   C1322 N$4901 N$4903 N$5020 N$5022 "Waveguide Crossing" sch_x=-122 sch_y=9 sch_r=0 sch_f=false lay_x=0 lay_y=0
   C1323 N$4905 N$4907 N$5024 N$5026 "Waveguide Crossing" sch_x=-122 sch_y=7 sch_r=0 sch_f=false lay_x=0 lay_y=0
   C1324 N$4909 N$4911 N$5028 N$5030 "Waveguide Crossing" sch_x=-122 sch_y=5 sch_r=0 sch_f=false lay_x=0 lay_y=0
   C1325 N$4913 N$4915 N$5032 N$5034 "Waveguide Crossing" sch_x=-122 sch_y=3 sch_r=0 sch_f=false lay_x=0 lay_y=0
   C1326 N$4917 N$4919 N$5036 N$5038 "Waveguide Crossing" sch_x=-122 sch_y=1 sch_r=0 sch_f=false lay_x=0 lay_y=0
   C1327 N$4921 N$4923 N$5040 N$5042 "Waveguide Crossing" sch_x=-122 sch_y=-1 sch_r=0 sch_f=false lay_x=0 lay_y=0
   C1328 N$4925 N$4927 N$5044 N$5046 "Waveguide Crossing" sch_x=-122 sch_y=-3 sch_r=0 sch_f=false lay_x=0 lay_y=0
   C1329 N$4929 N$4931 N$5048 N$5050 "Waveguide Crossing" sch_x=-122 sch_y=-5 sch_r=0 sch_f=false lay_x=0 lay_y=0
   C1330 N$4933 N$4935 N$5052 N$5054 "Waveguide Crossing" sch_x=-122 sch_y=-7 sch_r=0 sch_f=false lay_x=0 lay_y=0
   C1331 N$4937 N$4939 N$5056 N$5058 "Waveguide Crossing" sch_x=-122 sch_y=-9 sch_r=0 sch_f=false lay_x=0 lay_y=0
   C1332 N$4941 N$4943 N$5060 N$5062 "Waveguide Crossing" sch_x=-122 sch_y=-11 sch_r=0 sch_f=false lay_x=0 lay_y=0
   C1333 N$4945 N$4947 N$5064 N$5066 "Waveguide Crossing" sch_x=-122 sch_y=-13 sch_r=0 sch_f=false lay_x=0 lay_y=0
   C1334 N$4949 N$4951 N$5068 N$5070 "Waveguide Crossing" sch_x=-122 sch_y=-15 sch_r=0 sch_f=false lay_x=0 lay_y=0
   C1335 N$4953 N$4955 N$5072 N$5074 "Waveguide Crossing" sch_x=-122 sch_y=-17 sch_r=0 sch_f=false lay_x=0 lay_y=0
   C1336 N$4957 N$4959 N$5076 N$5078 "Waveguide Crossing" sch_x=-122 sch_y=-19 sch_r=0 sch_f=false lay_x=0 lay_y=0
   C1337 N$4961 N$4963 N$5080 N$5082 "Waveguide Crossing" sch_x=-122 sch_y=-21 sch_r=0 sch_f=false lay_x=0 lay_y=0
   C1338 N$4965 N$4967 N$5084 N$5086 "Waveguide Crossing" sch_x=-122 sch_y=-23 sch_r=0 sch_f=false lay_x=0 lay_y=0
   C1339 N$4969 N$4971 N$5088 N$5090 "Waveguide Crossing" sch_x=-122 sch_y=-25 sch_r=0 sch_f=false lay_x=0 lay_y=0
   C1340 N$4973 N$4975 N$5092 N$5094 "Waveguide Crossing" sch_x=-122 sch_y=-27 sch_r=0 sch_f=false lay_x=0 lay_y=0
   C1341 N$4977 N$4979 N$5096 N$6841 "Waveguide Crossing" sch_x=-122 sch_y=-29 sch_r=0 sch_f=false lay_x=0 lay_y=0
   C1342 N$4981 N$4983 N$6725 N$5098 "Waveguide Crossing" sch_x=-120 sch_y=28 sch_r=0 sch_f=false lay_x=0 lay_y=0
   C1343 N$4985 N$4987 N$5100 N$5102 "Waveguide Crossing" sch_x=-120 sch_y=26 sch_r=0 sch_f=false lay_x=0 lay_y=0
   C1344 N$4989 N$4991 N$5104 N$5106 "Waveguide Crossing" sch_x=-120 sch_y=24 sch_r=0 sch_f=false lay_x=0 lay_y=0
   C1345 N$4993 N$4995 N$5108 N$5110 "Waveguide Crossing" sch_x=-120 sch_y=22 sch_r=0 sch_f=false lay_x=0 lay_y=0
   C1346 N$4997 N$4999 N$5112 N$5114 "Waveguide Crossing" sch_x=-120 sch_y=20 sch_r=0 sch_f=false lay_x=0 lay_y=0
   C1347 N$5001 N$5003 N$5116 N$5118 "Waveguide Crossing" sch_x=-120 sch_y=18 sch_r=0 sch_f=false lay_x=0 lay_y=0
   C1348 N$5005 N$5007 N$5120 N$5122 "Waveguide Crossing" sch_x=-120 sch_y=16 sch_r=0 sch_f=false lay_x=0 lay_y=0
   C1349 N$5009 N$5011 N$5124 N$5126 "Waveguide Crossing" sch_x=-120 sch_y=14 sch_r=0 sch_f=false lay_x=0 lay_y=0
   C1350 N$5013 N$5015 N$5128 N$5130 "Waveguide Crossing" sch_x=-120 sch_y=12 sch_r=0 sch_f=false lay_x=0 lay_y=0
   C1351 N$5017 N$5019 N$5132 N$5134 "Waveguide Crossing" sch_x=-120 sch_y=10 sch_r=0 sch_f=false lay_x=0 lay_y=0
   C1352 N$5021 N$5023 N$5136 N$5138 "Waveguide Crossing" sch_x=-120 sch_y=8 sch_r=0 sch_f=false lay_x=0 lay_y=0
   C1353 N$5025 N$5027 N$5140 N$5142 "Waveguide Crossing" sch_x=-120 sch_y=6 sch_r=0 sch_f=false lay_x=0 lay_y=0
   C1354 N$5029 N$5031 N$5144 N$5146 "Waveguide Crossing" sch_x=-120 sch_y=4 sch_r=0 sch_f=false lay_x=0 lay_y=0
   C1355 N$5033 N$5035 N$5148 N$5150 "Waveguide Crossing" sch_x=-120 sch_y=2 sch_r=0 sch_f=false lay_x=0 lay_y=0
   C1356 N$5037 N$5039 N$5152 N$5154 "Waveguide Crossing" sch_x=-120 sch_y=0 sch_r=0 sch_f=false lay_x=0 lay_y=0
   C1357 N$5041 N$5043 N$5156 N$5158 "Waveguide Crossing" sch_x=-120 sch_y=-2 sch_r=0 sch_f=false lay_x=0 lay_y=0
   C1358 N$5045 N$5047 N$5160 N$5162 "Waveguide Crossing" sch_x=-120 sch_y=-4 sch_r=0 sch_f=false lay_x=0 lay_y=0
   C1359 N$5049 N$5051 N$5164 N$5166 "Waveguide Crossing" sch_x=-120 sch_y=-6 sch_r=0 sch_f=false lay_x=0 lay_y=0
   C1360 N$5053 N$5055 N$5168 N$5170 "Waveguide Crossing" sch_x=-120 sch_y=-8 sch_r=0 sch_f=false lay_x=0 lay_y=0
   C1361 N$5057 N$5059 N$5172 N$5174 "Waveguide Crossing" sch_x=-120 sch_y=-10 sch_r=0 sch_f=false lay_x=0 lay_y=0
   C1362 N$5061 N$5063 N$5176 N$5178 "Waveguide Crossing" sch_x=-120 sch_y=-12 sch_r=0 sch_f=false lay_x=0 lay_y=0
   C1363 N$5065 N$5067 N$5180 N$5182 "Waveguide Crossing" sch_x=-120 sch_y=-14 sch_r=0 sch_f=false lay_x=0 lay_y=0
   C1364 N$5069 N$5071 N$5184 N$5186 "Waveguide Crossing" sch_x=-120 sch_y=-16 sch_r=0 sch_f=false lay_x=0 lay_y=0
   C1365 N$5073 N$5075 N$5188 N$5190 "Waveguide Crossing" sch_x=-120 sch_y=-18 sch_r=0 sch_f=false lay_x=0 lay_y=0
   C1366 N$5077 N$5079 N$5192 N$5194 "Waveguide Crossing" sch_x=-120 sch_y=-20 sch_r=0 sch_f=false lay_x=0 lay_y=0
   C1367 N$5081 N$5083 N$5196 N$5198 "Waveguide Crossing" sch_x=-120 sch_y=-22 sch_r=0 sch_f=false lay_x=0 lay_y=0
   C1368 N$5085 N$5087 N$5200 N$5202 "Waveguide Crossing" sch_x=-120 sch_y=-24 sch_r=0 sch_f=false lay_x=0 lay_y=0
   C1369 N$5089 N$5091 N$5204 N$5206 "Waveguide Crossing" sch_x=-120 sch_y=-26 sch_r=0 sch_f=false lay_x=0 lay_y=0
   C1370 N$5093 N$5095 N$5208 N$6839 "Waveguide Crossing" sch_x=-120 sch_y=-28 sch_r=0 sch_f=false lay_x=0 lay_y=0
   C1371 N$5097 N$5099 N$6727 N$5210 "Waveguide Crossing" sch_x=-118 sch_y=27 sch_r=0 sch_f=false lay_x=0 lay_y=0
   C1372 N$5101 N$5103 N$5212 N$5214 "Waveguide Crossing" sch_x=-118 sch_y=25 sch_r=0 sch_f=false lay_x=0 lay_y=0
   C1373 N$5105 N$5107 N$5216 N$5218 "Waveguide Crossing" sch_x=-118 sch_y=23 sch_r=0 sch_f=false lay_x=0 lay_y=0
   C1374 N$5109 N$5111 N$5220 N$5222 "Waveguide Crossing" sch_x=-118 sch_y=21 sch_r=0 sch_f=false lay_x=0 lay_y=0
   C1375 N$5113 N$5115 N$5224 N$5226 "Waveguide Crossing" sch_x=-118 sch_y=19 sch_r=0 sch_f=false lay_x=0 lay_y=0
   C1376 N$5117 N$5119 N$5228 N$5230 "Waveguide Crossing" sch_x=-118 sch_y=17 sch_r=0 sch_f=false lay_x=0 lay_y=0
   C1377 N$5121 N$5123 N$5232 N$5234 "Waveguide Crossing" sch_x=-118 sch_y=15 sch_r=0 sch_f=false lay_x=0 lay_y=0
   C1378 N$5125 N$5127 N$5236 N$5238 "Waveguide Crossing" sch_x=-118 sch_y=13 sch_r=0 sch_f=false lay_x=0 lay_y=0
   C1379 N$5129 N$5131 N$5240 N$5242 "Waveguide Crossing" sch_x=-118 sch_y=11 sch_r=0 sch_f=false lay_x=0 lay_y=0
   C1380 N$5133 N$5135 N$5244 N$5246 "Waveguide Crossing" sch_x=-118 sch_y=9 sch_r=0 sch_f=false lay_x=0 lay_y=0
   C1381 N$5137 N$5139 N$5248 N$5250 "Waveguide Crossing" sch_x=-118 sch_y=7 sch_r=0 sch_f=false lay_x=0 lay_y=0
   C1382 N$5141 N$5143 N$5252 N$5254 "Waveguide Crossing" sch_x=-118 sch_y=5 sch_r=0 sch_f=false lay_x=0 lay_y=0
   C1383 N$5145 N$5147 N$5256 N$5258 "Waveguide Crossing" sch_x=-118 sch_y=3 sch_r=0 sch_f=false lay_x=0 lay_y=0
   C1384 N$5149 N$5151 N$5260 N$5262 "Waveguide Crossing" sch_x=-118 sch_y=1 sch_r=0 sch_f=false lay_x=0 lay_y=0
   C1385 N$5153 N$5155 N$5264 N$5266 "Waveguide Crossing" sch_x=-118 sch_y=-1 sch_r=0 sch_f=false lay_x=0 lay_y=0
   C1386 N$5157 N$5159 N$5268 N$5270 "Waveguide Crossing" sch_x=-118 sch_y=-3 sch_r=0 sch_f=false lay_x=0 lay_y=0
   C1387 N$5161 N$5163 N$5272 N$5274 "Waveguide Crossing" sch_x=-118 sch_y=-5 sch_r=0 sch_f=false lay_x=0 lay_y=0
   C1388 N$5165 N$5167 N$5276 N$5278 "Waveguide Crossing" sch_x=-118 sch_y=-7 sch_r=0 sch_f=false lay_x=0 lay_y=0
   C1389 N$5169 N$5171 N$5280 N$5282 "Waveguide Crossing" sch_x=-118 sch_y=-9 sch_r=0 sch_f=false lay_x=0 lay_y=0
   C1390 N$5173 N$5175 N$5284 N$5286 "Waveguide Crossing" sch_x=-118 sch_y=-11 sch_r=0 sch_f=false lay_x=0 lay_y=0
   C1391 N$5177 N$5179 N$5288 N$5290 "Waveguide Crossing" sch_x=-118 sch_y=-13 sch_r=0 sch_f=false lay_x=0 lay_y=0
   C1392 N$5181 N$5183 N$5292 N$5294 "Waveguide Crossing" sch_x=-118 sch_y=-15 sch_r=0 sch_f=false lay_x=0 lay_y=0
   C1393 N$5185 N$5187 N$5296 N$5298 "Waveguide Crossing" sch_x=-118 sch_y=-17 sch_r=0 sch_f=false lay_x=0 lay_y=0
   C1394 N$5189 N$5191 N$5300 N$5302 "Waveguide Crossing" sch_x=-118 sch_y=-19 sch_r=0 sch_f=false lay_x=0 lay_y=0
   C1395 N$5193 N$5195 N$5304 N$5306 "Waveguide Crossing" sch_x=-118 sch_y=-21 sch_r=0 sch_f=false lay_x=0 lay_y=0
   C1396 N$5197 N$5199 N$5308 N$5310 "Waveguide Crossing" sch_x=-118 sch_y=-23 sch_r=0 sch_f=false lay_x=0 lay_y=0
   C1397 N$5201 N$5203 N$5312 N$5314 "Waveguide Crossing" sch_x=-118 sch_y=-25 sch_r=0 sch_f=false lay_x=0 lay_y=0
   C1398 N$5205 N$5207 N$5316 N$6837 "Waveguide Crossing" sch_x=-118 sch_y=-27 sch_r=0 sch_f=false lay_x=0 lay_y=0
   C1399 N$5209 N$5211 N$6729 N$5318 "Waveguide Crossing" sch_x=-116 sch_y=26 sch_r=0 sch_f=false lay_x=0 lay_y=0
   C1400 N$5213 N$5215 N$5320 N$5322 "Waveguide Crossing" sch_x=-116 sch_y=24 sch_r=0 sch_f=false lay_x=0 lay_y=0
   C1401 N$5217 N$5219 N$5324 N$5326 "Waveguide Crossing" sch_x=-116 sch_y=22 sch_r=0 sch_f=false lay_x=0 lay_y=0
   C1402 N$5221 N$5223 N$5328 N$5330 "Waveguide Crossing" sch_x=-116 sch_y=20 sch_r=0 sch_f=false lay_x=0 lay_y=0
   C1403 N$5225 N$5227 N$5332 N$5334 "Waveguide Crossing" sch_x=-116 sch_y=18 sch_r=0 sch_f=false lay_x=0 lay_y=0
   C1404 N$5229 N$5231 N$5336 N$5338 "Waveguide Crossing" sch_x=-116 sch_y=16 sch_r=0 sch_f=false lay_x=0 lay_y=0
   C1405 N$5233 N$5235 N$5340 N$5342 "Waveguide Crossing" sch_x=-116 sch_y=14 sch_r=0 sch_f=false lay_x=0 lay_y=0
   C1406 N$5237 N$5239 N$5344 N$5346 "Waveguide Crossing" sch_x=-116 sch_y=12 sch_r=0 sch_f=false lay_x=0 lay_y=0
   C1407 N$5241 N$5243 N$5348 N$5350 "Waveguide Crossing" sch_x=-116 sch_y=10 sch_r=0 sch_f=false lay_x=0 lay_y=0
   C1408 N$5245 N$5247 N$5352 N$5354 "Waveguide Crossing" sch_x=-116 sch_y=8 sch_r=0 sch_f=false lay_x=0 lay_y=0
   C1409 N$5249 N$5251 N$5356 N$5358 "Waveguide Crossing" sch_x=-116 sch_y=6 sch_r=0 sch_f=false lay_x=0 lay_y=0
   C1410 N$5253 N$5255 N$5360 N$5362 "Waveguide Crossing" sch_x=-116 sch_y=4 sch_r=0 sch_f=false lay_x=0 lay_y=0
   C1411 N$5257 N$5259 N$5364 N$5366 "Waveguide Crossing" sch_x=-116 sch_y=2 sch_r=0 sch_f=false lay_x=0 lay_y=0
   C1412 N$5261 N$5263 N$5368 N$5370 "Waveguide Crossing" sch_x=-116 sch_y=0 sch_r=0 sch_f=false lay_x=0 lay_y=0
   C1413 N$5265 N$5267 N$5372 N$5374 "Waveguide Crossing" sch_x=-116 sch_y=-2 sch_r=0 sch_f=false lay_x=0 lay_y=0
   C1414 N$5269 N$5271 N$5376 N$5378 "Waveguide Crossing" sch_x=-116 sch_y=-4 sch_r=0 sch_f=false lay_x=0 lay_y=0
   C1415 N$5273 N$5275 N$5380 N$5382 "Waveguide Crossing" sch_x=-116 sch_y=-6 sch_r=0 sch_f=false lay_x=0 lay_y=0
   C1416 N$5277 N$5279 N$5384 N$5386 "Waveguide Crossing" sch_x=-116 sch_y=-8 sch_r=0 sch_f=false lay_x=0 lay_y=0
   C1417 N$5281 N$5283 N$5388 N$5390 "Waveguide Crossing" sch_x=-116 sch_y=-10 sch_r=0 sch_f=false lay_x=0 lay_y=0
   C1418 N$5285 N$5287 N$5392 N$5394 "Waveguide Crossing" sch_x=-116 sch_y=-12 sch_r=0 sch_f=false lay_x=0 lay_y=0
   C1419 N$5289 N$5291 N$5396 N$5398 "Waveguide Crossing" sch_x=-116 sch_y=-14 sch_r=0 sch_f=false lay_x=0 lay_y=0
   C1420 N$5293 N$5295 N$5400 N$5402 "Waveguide Crossing" sch_x=-116 sch_y=-16 sch_r=0 sch_f=false lay_x=0 lay_y=0
   C1421 N$5297 N$5299 N$5404 N$5406 "Waveguide Crossing" sch_x=-116 sch_y=-18 sch_r=0 sch_f=false lay_x=0 lay_y=0
   C1422 N$5301 N$5303 N$5408 N$5410 "Waveguide Crossing" sch_x=-116 sch_y=-20 sch_r=0 sch_f=false lay_x=0 lay_y=0
   C1423 N$5305 N$5307 N$5412 N$5414 "Waveguide Crossing" sch_x=-116 sch_y=-22 sch_r=0 sch_f=false lay_x=0 lay_y=0
   C1424 N$5309 N$5311 N$5416 N$5418 "Waveguide Crossing" sch_x=-116 sch_y=-24 sch_r=0 sch_f=false lay_x=0 lay_y=0
   C1425 N$5313 N$5315 N$5420 N$6835 "Waveguide Crossing" sch_x=-116 sch_y=-26 sch_r=0 sch_f=false lay_x=0 lay_y=0
   C1426 N$5317 N$5319 N$6731 N$5422 "Waveguide Crossing" sch_x=-114 sch_y=25 sch_r=0 sch_f=false lay_x=0 lay_y=0
   C1427 N$5321 N$5323 N$5424 N$5426 "Waveguide Crossing" sch_x=-114 sch_y=23 sch_r=0 sch_f=false lay_x=0 lay_y=0
   C1428 N$5325 N$5327 N$5428 N$5430 "Waveguide Crossing" sch_x=-114 sch_y=21 sch_r=0 sch_f=false lay_x=0 lay_y=0
   C1429 N$5329 N$5331 N$5432 N$5434 "Waveguide Crossing" sch_x=-114 sch_y=19 sch_r=0 sch_f=false lay_x=0 lay_y=0
   C1430 N$5333 N$5335 N$5436 N$5438 "Waveguide Crossing" sch_x=-114 sch_y=17 sch_r=0 sch_f=false lay_x=0 lay_y=0
   C1431 N$5337 N$5339 N$5440 N$5442 "Waveguide Crossing" sch_x=-114 sch_y=15 sch_r=0 sch_f=false lay_x=0 lay_y=0
   C1432 N$5341 N$5343 N$5444 N$5446 "Waveguide Crossing" sch_x=-114 sch_y=13 sch_r=0 sch_f=false lay_x=0 lay_y=0
   C1433 N$5345 N$5347 N$5448 N$5450 "Waveguide Crossing" sch_x=-114 sch_y=11 sch_r=0 sch_f=false lay_x=0 lay_y=0
   C1434 N$5349 N$5351 N$5452 N$5454 "Waveguide Crossing" sch_x=-114 sch_y=9 sch_r=0 sch_f=false lay_x=0 lay_y=0
   C1435 N$5353 N$5355 N$5456 N$5458 "Waveguide Crossing" sch_x=-114 sch_y=7 sch_r=0 sch_f=false lay_x=0 lay_y=0
   C1436 N$5357 N$5359 N$5460 N$5462 "Waveguide Crossing" sch_x=-114 sch_y=5 sch_r=0 sch_f=false lay_x=0 lay_y=0
   C1437 N$5361 N$5363 N$5464 N$5466 "Waveguide Crossing" sch_x=-114 sch_y=3 sch_r=0 sch_f=false lay_x=0 lay_y=0
   C1438 N$5365 N$5367 N$5468 N$5470 "Waveguide Crossing" sch_x=-114 sch_y=1 sch_r=0 sch_f=false lay_x=0 lay_y=0
   C1439 N$5369 N$5371 N$5472 N$5474 "Waveguide Crossing" sch_x=-114 sch_y=-1 sch_r=0 sch_f=false lay_x=0 lay_y=0
   C1440 N$5373 N$5375 N$5476 N$5478 "Waveguide Crossing" sch_x=-114 sch_y=-3 sch_r=0 sch_f=false lay_x=0 lay_y=0
   C1441 N$5377 N$5379 N$5480 N$5482 "Waveguide Crossing" sch_x=-114 sch_y=-5 sch_r=0 sch_f=false lay_x=0 lay_y=0
   C1442 N$5381 N$5383 N$5484 N$5486 "Waveguide Crossing" sch_x=-114 sch_y=-7 sch_r=0 sch_f=false lay_x=0 lay_y=0
   C1443 N$5385 N$5387 N$5488 N$5490 "Waveguide Crossing" sch_x=-114 sch_y=-9 sch_r=0 sch_f=false lay_x=0 lay_y=0
   C1444 N$5389 N$5391 N$5492 N$5494 "Waveguide Crossing" sch_x=-114 sch_y=-11 sch_r=0 sch_f=false lay_x=0 lay_y=0
   C1445 N$5393 N$5395 N$5496 N$5498 "Waveguide Crossing" sch_x=-114 sch_y=-13 sch_r=0 sch_f=false lay_x=0 lay_y=0
   C1446 N$5397 N$5399 N$5500 N$5502 "Waveguide Crossing" sch_x=-114 sch_y=-15 sch_r=0 sch_f=false lay_x=0 lay_y=0
   C1447 N$5401 N$5403 N$5504 N$5506 "Waveguide Crossing" sch_x=-114 sch_y=-17 sch_r=0 sch_f=false lay_x=0 lay_y=0
   C1448 N$5405 N$5407 N$5508 N$5510 "Waveguide Crossing" sch_x=-114 sch_y=-19 sch_r=0 sch_f=false lay_x=0 lay_y=0
   C1449 N$5409 N$5411 N$5512 N$5514 "Waveguide Crossing" sch_x=-114 sch_y=-21 sch_r=0 sch_f=false lay_x=0 lay_y=0
   C1450 N$5413 N$5415 N$5516 N$5518 "Waveguide Crossing" sch_x=-114 sch_y=-23 sch_r=0 sch_f=false lay_x=0 lay_y=0
   C1451 N$5417 N$5419 N$5520 N$6833 "Waveguide Crossing" sch_x=-114 sch_y=-25 sch_r=0 sch_f=false lay_x=0 lay_y=0
   C1452 N$5421 N$5423 N$6733 N$5522 "Waveguide Crossing" sch_x=-112 sch_y=24 sch_r=0 sch_f=false lay_x=0 lay_y=0
   C1453 N$5425 N$5427 N$5524 N$5526 "Waveguide Crossing" sch_x=-112 sch_y=22 sch_r=0 sch_f=false lay_x=0 lay_y=0
   C1454 N$5429 N$5431 N$5528 N$5530 "Waveguide Crossing" sch_x=-112 sch_y=20 sch_r=0 sch_f=false lay_x=0 lay_y=0
   C1455 N$5433 N$5435 N$5532 N$5534 "Waveguide Crossing" sch_x=-112 sch_y=18 sch_r=0 sch_f=false lay_x=0 lay_y=0
   C1456 N$5437 N$5439 N$5536 N$5538 "Waveguide Crossing" sch_x=-112 sch_y=16 sch_r=0 sch_f=false lay_x=0 lay_y=0
   C1457 N$5441 N$5443 N$5540 N$5542 "Waveguide Crossing" sch_x=-112 sch_y=14 sch_r=0 sch_f=false lay_x=0 lay_y=0
   C1458 N$5445 N$5447 N$5544 N$5546 "Waveguide Crossing" sch_x=-112 sch_y=12 sch_r=0 sch_f=false lay_x=0 lay_y=0
   C1459 N$5449 N$5451 N$5548 N$5550 "Waveguide Crossing" sch_x=-112 sch_y=10 sch_r=0 sch_f=false lay_x=0 lay_y=0
   C1460 N$5453 N$5455 N$5552 N$5554 "Waveguide Crossing" sch_x=-112 sch_y=8 sch_r=0 sch_f=false lay_x=0 lay_y=0
   C1461 N$5457 N$5459 N$5556 N$5558 "Waveguide Crossing" sch_x=-112 sch_y=6 sch_r=0 sch_f=false lay_x=0 lay_y=0
   C1462 N$5461 N$5463 N$5560 N$5562 "Waveguide Crossing" sch_x=-112 sch_y=4 sch_r=0 sch_f=false lay_x=0 lay_y=0
   C1463 N$5465 N$5467 N$5564 N$5566 "Waveguide Crossing" sch_x=-112 sch_y=2 sch_r=0 sch_f=false lay_x=0 lay_y=0
   C1464 N$5469 N$5471 N$5568 N$5570 "Waveguide Crossing" sch_x=-112 sch_y=0 sch_r=0 sch_f=false lay_x=0 lay_y=0
   C1465 N$5473 N$5475 N$5572 N$5574 "Waveguide Crossing" sch_x=-112 sch_y=-2 sch_r=0 sch_f=false lay_x=0 lay_y=0
   C1466 N$5477 N$5479 N$5576 N$5578 "Waveguide Crossing" sch_x=-112 sch_y=-4 sch_r=0 sch_f=false lay_x=0 lay_y=0
   C1467 N$5481 N$5483 N$5580 N$5582 "Waveguide Crossing" sch_x=-112 sch_y=-6 sch_r=0 sch_f=false lay_x=0 lay_y=0
   C1468 N$5485 N$5487 N$5584 N$5586 "Waveguide Crossing" sch_x=-112 sch_y=-8 sch_r=0 sch_f=false lay_x=0 lay_y=0
   C1469 N$5489 N$5491 N$5588 N$5590 "Waveguide Crossing" sch_x=-112 sch_y=-10 sch_r=0 sch_f=false lay_x=0 lay_y=0
   C1470 N$5493 N$5495 N$5592 N$5594 "Waveguide Crossing" sch_x=-112 sch_y=-12 sch_r=0 sch_f=false lay_x=0 lay_y=0
   C1471 N$5497 N$5499 N$5596 N$5598 "Waveguide Crossing" sch_x=-112 sch_y=-14 sch_r=0 sch_f=false lay_x=0 lay_y=0
   C1472 N$5501 N$5503 N$5600 N$5602 "Waveguide Crossing" sch_x=-112 sch_y=-16 sch_r=0 sch_f=false lay_x=0 lay_y=0
   C1473 N$5505 N$5507 N$5604 N$5606 "Waveguide Crossing" sch_x=-112 sch_y=-18 sch_r=0 sch_f=false lay_x=0 lay_y=0
   C1474 N$5509 N$5511 N$5608 N$5610 "Waveguide Crossing" sch_x=-112 sch_y=-20 sch_r=0 sch_f=false lay_x=0 lay_y=0
   C1475 N$5513 N$5515 N$5612 N$5614 "Waveguide Crossing" sch_x=-112 sch_y=-22 sch_r=0 sch_f=false lay_x=0 lay_y=0
   C1476 N$5517 N$5519 N$5616 N$6831 "Waveguide Crossing" sch_x=-112 sch_y=-24 sch_r=0 sch_f=false lay_x=0 lay_y=0
   C1477 N$5521 N$5523 N$6735 N$5618 "Waveguide Crossing" sch_x=-110 sch_y=23 sch_r=0 sch_f=false lay_x=0 lay_y=0
   C1478 N$5525 N$5527 N$5620 N$5622 "Waveguide Crossing" sch_x=-110 sch_y=21 sch_r=0 sch_f=false lay_x=0 lay_y=0
   C1479 N$5529 N$5531 N$5624 N$5626 "Waveguide Crossing" sch_x=-110 sch_y=19 sch_r=0 sch_f=false lay_x=0 lay_y=0
   C1480 N$5533 N$5535 N$5628 N$5630 "Waveguide Crossing" sch_x=-110 sch_y=17 sch_r=0 sch_f=false lay_x=0 lay_y=0
   C1481 N$5537 N$5539 N$5632 N$5634 "Waveguide Crossing" sch_x=-110 sch_y=15 sch_r=0 sch_f=false lay_x=0 lay_y=0
   C1482 N$5541 N$5543 N$5636 N$5638 "Waveguide Crossing" sch_x=-110 sch_y=13 sch_r=0 sch_f=false lay_x=0 lay_y=0
   C1483 N$5545 N$5547 N$5640 N$5642 "Waveguide Crossing" sch_x=-110 sch_y=11 sch_r=0 sch_f=false lay_x=0 lay_y=0
   C1484 N$5549 N$5551 N$5644 N$5646 "Waveguide Crossing" sch_x=-110 sch_y=9 sch_r=0 sch_f=false lay_x=0 lay_y=0
   C1485 N$5553 N$5555 N$5648 N$5650 "Waveguide Crossing" sch_x=-110 sch_y=7 sch_r=0 sch_f=false lay_x=0 lay_y=0
   C1486 N$5557 N$5559 N$5652 N$5654 "Waveguide Crossing" sch_x=-110 sch_y=5 sch_r=0 sch_f=false lay_x=0 lay_y=0
   C1487 N$5561 N$5563 N$5656 N$5658 "Waveguide Crossing" sch_x=-110 sch_y=3 sch_r=0 sch_f=false lay_x=0 lay_y=0
   C1488 N$5565 N$5567 N$5660 N$5662 "Waveguide Crossing" sch_x=-110 sch_y=1 sch_r=0 sch_f=false lay_x=0 lay_y=0
   C1489 N$5569 N$5571 N$5664 N$5666 "Waveguide Crossing" sch_x=-110 sch_y=-1 sch_r=0 sch_f=false lay_x=0 lay_y=0
   C1490 N$5573 N$5575 N$5668 N$5670 "Waveguide Crossing" sch_x=-110 sch_y=-3 sch_r=0 sch_f=false lay_x=0 lay_y=0